%chk=ZnPc2_40x15.chk
%nprocshared=8
%mem=16GB
#p def2svp iop(3/107=0400000000,3/108=0400000000) lc-blyp

lc-blyp(mu=0.4)/def2-tzvp(-f), geom b3pw/631dp

0 1
 C                  1.55242119    6.40725741    0.00000000
 C                  0.15879652    6.59073158    0.00000000
 C                  2.11191924    5.13301772    0.00000000
 C                  1.24209878    4.04451662    0.00000000
 C                 -0.15297736    4.22818187    0.00000000
 C                 -0.71143459    5.50471930    0.00000000
 C                  1.46893414    2.60487208    0.00000000
 C                 -0.74469092    2.89630135    0.00000000
 N                  0.25874433    1.96535830    0.00000000
 N                 -2.05336279    2.67599449    0.00000000
 N                  2.67599449    2.05336279    0.00000000
 H                  2.20141565    7.27863148    0.00000000
 H                 -0.24255578    7.60038642    0.00000000
 H                  3.18671338    4.98195963    0.00000000
 H                 -1.78870272    5.63698559    0.00000000
 C                  6.40725741   -1.55242119    0.00000000
 C                  6.59073158   -0.15879652    0.00000000
 C                  5.13301772   -2.11191924    0.00000000
 C                  4.04451662   -1.24209878    0.00000000
 C                  4.22818187    0.15297736    0.00000000
 C                  5.50471930    0.71143459    0.00000000
 C                  2.60487208   -1.46893414    0.00000000
 C                  2.89630135    0.74469092    0.00000000
 N                  1.96535830   -0.25874433    0.00000000
 N                  2.05336279   -2.67599449    0.00000000
 H                  7.27863148   -2.20141565    0.00000000
 H                  7.60038642    0.24255578    0.00000000
 H                  4.98195963   -3.18671338    0.00000000
 H                  5.63698559    1.78870272    0.00000000
 C                 -6.40725741    1.55242119    0.00000000
 C                 -6.59073158    0.15879652    0.00000000
 C                 -5.13301772    2.11191924    0.00000000
 C                 -4.04451662    1.24209878    0.00000000
 C                 -4.22818187   -0.15297736    0.00000000
 C                 -5.50471930   -0.71143459    0.00000000
 C                 -2.60487208    1.46893414    0.00000000
 C                 -2.89630135   -0.74469092    0.00000000
 N                 -1.96535830    0.25874433    0.00000000
 N                 -2.67599449   -2.05336279    0.00000000
 H                 -7.27863148    2.20141565    0.00000000
 H                 -7.60038642   -0.24255578    0.00000000
 H                 -4.98195963    3.18671338    0.00000000
 H                 -5.63698559   -1.78870272    0.00000000
 C                 -1.55242119   -6.40725741    0.00000000
 C                 -0.15879652   -6.59073158    0.00000000
 C                 -2.11191924   -5.13301772    0.00000000
 C                 -1.24209878   -4.04451662    0.00000000
 C                  0.15297736   -4.22818187    0.00000000
 C                  0.71143459   -5.50471930    0.00000000
 C                 -1.46893414   -2.60487208    0.00000000
 C                  0.74469092   -2.89630135    0.00000000
 N                 -0.25874433   -1.96535830    0.00000000
 H                 -2.20141565   -7.27863148    0.00000000
 H                  0.24255578   -7.60038642    0.00000000
 H                 -3.18671338   -4.98195963    0.00000000
 H                  1.78870272   -5.63698559    0.00000000
 Zn                 0.00000000    0.00000000    0.00000000
 C                 -0.15879652    6.59073158    4.00000000
 C                 -1.55242119    6.40725741    4.00000000
 C                  0.71143459    5.50471930    4.00000000
 C                  0.15297736    4.22818187    4.00000000
 C                 -1.24209878    4.04451662    4.00000000
 C                 -2.11191924    5.13301772    4.00000000
 C                  0.74469092    2.89630135    4.00000000
 C                 -1.46893414    2.60487208    4.00000000
 N                 -0.25874433    1.96535830    4.00000000
 N                 -2.67599449    2.05336279    4.00000000
 N                  2.05336279    2.67599449    4.00000000
 H                  0.24255578    7.60038642    4.00000000
 H                 -2.20141565    7.27863148    4.00000000
 H                  1.78870272    5.63698559    4.00000000
 H                 -3.18671338    4.98195963    4.00000000
 C                  6.59073158    0.15879652    4.00000000
 C                  6.40725741    1.55242119    4.00000000
 C                  5.50471930   -0.71143459    4.00000000
 C                  4.22818187   -0.15297736    4.00000000
 C                  4.04451662    1.24209878    4.00000000
 C                  5.13301772    2.11191924    4.00000000
 C                  2.89630135   -0.74469092    4.00000000
 C                  2.60487208    1.46893414    4.00000000
 N                  1.96535830    0.25874433    4.00000000
 N                  2.67599449   -2.05336279    4.00000000
 H                  7.60038642   -0.24255578    4.00000000
 H                  7.27863148    2.20141565    4.00000000
 H                  5.63698559   -1.78870272    4.00000000
 H                  4.98195963    3.18671338    4.00000000
 C                 -6.59073158   -0.15879652    4.00000000
 C                 -6.40725741   -1.55242119    4.00000000
 C                 -5.50471930    0.71143459    4.00000000
 C                 -4.22818187    0.15297736    4.00000000
 C                 -4.04451662   -1.24209878    4.00000000
 C                 -5.13301772   -2.11191924    4.00000000
 C                 -2.89630135    0.74469092    4.00000000
 C                 -2.60487208   -1.46893414    4.00000000
 N                 -1.96535830   -0.25874433    4.00000000
 N                 -2.05336279   -2.67599449    4.00000000
 H                 -7.60038642    0.24255578    4.00000000
 H                 -7.27863148   -2.20141565    4.00000000
 H                 -5.63698559    1.78870272    4.00000000
 H                 -4.98195963   -3.18671338    4.00000000
 C                  0.15879652   -6.59073158    4.00000000
 C                  1.55242119   -6.40725741    4.00000000
 C                 -0.71143459   -5.50471930    4.00000000
 C                 -0.15297736   -4.22818187    4.00000000
 C                  1.24209878   -4.04451662    4.00000000
 C                  2.11191924   -5.13301772    4.00000000
 C                 -0.74469092   -2.89630135    4.00000000
 C                  1.46893414   -2.60487208    4.00000000
 N                  0.25874433   -1.96535830    4.00000000
 H                 -0.24255578   -7.60038642    4.00000000
 H                  2.20141565   -7.27863148    4.00000000
 H                 -1.78870272   -5.63698559    4.00000000
 H                  3.18671338   -4.98195963    4.00000000
 Zn                 0.00000000    0.00000000    4.00000000

