%chk=ZnPc2_40x30.chk
%nprocshared=8
%mem=16GB
#p def2svp iop(3/107=0400000000,3/108=0400000000) lc-blyp

lc-blyp(mu=0.4)/def2-tzvp(-f), geom b3pw/631dp

0 1
 C                  2.37545492    6.14981081    0.00000000
 C                  1.01770109    6.51361985    0.00000000
 C                  2.76384473    4.81344327    0.00000000
 C                  1.75938780    3.84778880    0.00000000
 C                  0.40021986    4.21197674    0.00000000
 C                  0.01316188    5.55048651    0.00000000
 C                  1.79637124    2.39085266    0.00000000
 C                 -0.36027680    2.96872476    0.00000000
 N                  0.51306147    1.91477148    0.00000000
 N                 -1.68650862    2.92111861    0.00000000
 N                  2.92111861    1.68650862    0.00000000
 H                  3.13263428    6.92901938    0.00000000
 H                  0.75156881    7.56702394    0.00000000
 H                  3.80972682    4.52338871    0.00000000
 H                 -1.03762586    5.82223295    0.00000000
 C                  6.14981081   -2.37545492    0.00000000
 C                  6.51361985   -1.01770109    0.00000000
 C                  4.81344327   -2.76384473    0.00000000
 C                  3.84778880   -1.75938780    0.00000000
 C                  4.21197674   -0.40021986    0.00000000
 C                  5.55048651   -0.01316188    0.00000000
 C                  2.39085266   -1.79637124    0.00000000
 C                  2.96872476    0.36027680    0.00000000
 N                  1.91477148   -0.51306147    0.00000000
 N                  1.68650862   -2.92111861    0.00000000
 H                  6.92901938   -3.13263428    0.00000000
 H                  7.56702394   -0.75156881    0.00000000
 H                  4.52338871   -3.80972682    0.00000000
 H                  5.82223295    1.03762586    0.00000000
 C                 -6.14981081    2.37545492    0.00000000
 C                 -6.51361985    1.01770109    0.00000000
 C                 -4.81344327    2.76384473    0.00000000
 C                 -3.84778880    1.75938780    0.00000000
 C                 -4.21197674    0.40021986    0.00000000
 C                 -5.55048651    0.01316188    0.00000000
 C                 -2.39085266    1.79637124    0.00000000
 C                 -2.96872476   -0.36027680    0.00000000
 N                 -1.91477148    0.51306147    0.00000000
 N                 -2.92111861   -1.68650862    0.00000000
 H                 -6.92901938    3.13263428    0.00000000
 H                 -7.56702394    0.75156881    0.00000000
 H                 -4.52338871    3.80972682    0.00000000
 H                 -5.82223295   -1.03762586    0.00000000
 C                 -2.37545492   -6.14981081    0.00000000
 C                 -1.01770109   -6.51361985    0.00000000
 C                 -2.76384473   -4.81344327    0.00000000
 C                 -1.75938780   -3.84778880    0.00000000
 C                 -0.40021986   -4.21197674    0.00000000
 C                 -0.01316188   -5.55048651    0.00000000
 C                 -1.79637124   -2.39085266    0.00000000
 C                  0.36027680   -2.96872476    0.00000000
 N                 -0.51306147   -1.91477148    0.00000000
 H                 -3.13263428   -6.92901938    0.00000000
 H                 -0.75156881   -7.56702394    0.00000000
 H                 -3.80972682   -4.52338871    0.00000000
 H                  1.03762586   -5.82223295    0.00000000
 Zn                 0.00000000    0.00000000    0.00000000
 C                 -1.01770109    6.51361985    4.00000000
 C                 -2.37545492    6.14981081    4.00000000
 C                 -0.01316188    5.55048651    4.00000000
 C                 -0.40021986    4.21197674    4.00000000
 C                 -1.75938780    3.84778880    4.00000000
 C                 -2.76384473    4.81344327    4.00000000
 C                  0.36027680    2.96872476    4.00000000
 C                 -1.79637124    2.39085266    4.00000000
 N                 -0.51306147    1.91477148    4.00000000
 N                 -2.92111861    1.68650862    4.00000000
 N                  1.68650862    2.92111861    4.00000000
 H                 -0.75156881    7.56702394    4.00000000
 H                 -3.13263428    6.92901938    4.00000000
 H                  1.03762586    5.82223295    4.00000000
 H                 -3.80972682    4.52338871    4.00000000
 C                  6.51361985    1.01770109    4.00000000
 C                  6.14981081    2.37545492    4.00000000
 C                  5.55048651    0.01316188    4.00000000
 C                  4.21197674    0.40021986    4.00000000
 C                  3.84778880    1.75938780    4.00000000
 C                  4.81344327    2.76384473    4.00000000
 C                  2.96872476   -0.36027680    4.00000000
 C                  2.39085266    1.79637124    4.00000000
 N                  1.91477148    0.51306147    4.00000000
 N                  2.92111861   -1.68650862    4.00000000
 H                  7.56702394    0.75156881    4.00000000
 H                  6.92901938    3.13263428    4.00000000
 H                  5.82223295   -1.03762586    4.00000000
 H                  4.52338871    3.80972682    4.00000000
 C                 -6.51361985   -1.01770109    4.00000000
 C                 -6.14981081   -2.37545492    4.00000000
 C                 -5.55048651   -0.01316188    4.00000000
 C                 -4.21197674   -0.40021986    4.00000000
 C                 -3.84778880   -1.75938780    4.00000000
 C                 -4.81344327   -2.76384473    4.00000000
 C                 -2.96872476    0.36027680    4.00000000
 C                 -2.39085266   -1.79637124    4.00000000
 N                 -1.91477148   -0.51306147    4.00000000
 N                 -1.68650862   -2.92111861    4.00000000
 H                 -7.56702394   -0.75156881    4.00000000
 H                 -6.92901938   -3.13263428    4.00000000
 H                 -5.82223295    1.03762586    4.00000000
 H                 -4.52338871   -3.80972682    4.00000000
 C                  1.01770109   -6.51361985    4.00000000
 C                  2.37545492   -6.14981081    4.00000000
 C                  0.01316188   -5.55048651    4.00000000
 C                  0.40021986   -4.21197674    4.00000000
 C                  1.75938780   -3.84778880    4.00000000
 C                  2.76384473   -4.81344327    4.00000000
 C                 -0.36027680   -2.96872476    4.00000000
 C                  1.79637124   -2.39085266    4.00000000
 N                  0.51306147   -1.91477148    4.00000000
 H                  0.75156881   -7.56702394    4.00000000
 H                  3.13263428   -6.92901938    4.00000000
 H                 -1.03762586   -5.82223295    4.00000000
 H                  3.80972682   -4.52338871    4.00000000
 Zn                 0.00000000    0.00000000    4.00000000

