%chk=ZnPcXRD6H.chk
%nproc=2
%mem=8GB
#p opt=readopt b3pw91/6-31g**

Title Card Required

0 1
 Zn                 0.00000000    0.00000000    0.00000000
 N                 -2.03769311   -2.51232688    0.89799765
 N                 -0.32790291   -0.98386526    1.68688107
 N                  1.23608573    0.13008184    3.16556715
 N                  1.35834368    1.08822196    0.94064000
 C                 -1.24157593   -1.98860186    1.83111254
 C                 -1.25473138   -2.41961930    3.21573462
 C                 -2.00877051   -3.38552550    3.87794518
 C                 -1.78698767   -3.53647868    5.23999190
 C                 -0.84442315   -2.76084144    5.92101526
 C                 -0.08119804   -1.79978904    5.25629633
 C                 -0.30388296   -1.64640896    3.88923286
 C                  0.27764123   -0.74748520    2.89466283
 C                  1.73731327    0.96105240    2.25502763
 C                  2.80459425    1.91530948    2.53094870
 C                  3.56252764    2.19100532    3.66975019
 C                  4.53902466    3.17341444    3.56941526
 C                  4.75578277    3.86799322    2.37919211
 C                  4.00170418    3.60443188    1.24039061
 C                  3.02889807    2.61328592    1.33445461
 C                  2.09790491    2.07548488    0.35869739
 N                  2.03769311    2.51232688   -0.89799765
 N                  0.32790291    0.98386526   -1.68688107
 N                 -1.23608573   -0.13008184   -3.16556715
 N                 -1.35834368   -1.08822196   -0.94064000
 C                  1.24157593    1.98860186   -1.83111254
 C                  1.25473138    2.41961930   -3.21573462
 C                  2.00877051    3.38552550   -3.87794518
 C                  1.78698767    3.53647868   -5.23999190
 C                  0.84442315    2.76084144   -5.92101526
 C                  0.08119804    1.79978904   -5.25629633
 C                  0.30388296    1.64640896   -3.88923286
 C                 -0.27764123    0.74748520   -2.89466283
 C                 -1.73731327   -0.96105240   -2.25502763
 C                 -2.80459425   -1.91530948   -2.53094870
 C                 -3.56252764   -2.19100532   -3.66975019
 C                 -4.53902466   -3.17341444   -3.56941526
 C                 -4.75578277   -3.86799322   -2.37919211
 C                 -4.00170418   -3.60443188   -1.24039061
 C                 -3.02889807   -2.61328592   -1.33445461
 C                 -2.09790491   -2.07548488   -0.35869739
 Bq                 0.00000000    4.85380000    0.00000000
 H                 -0.64342402    1.20654917   -5.77387660
 H                  0.70537796    2.90664570   -6.97187565
 H                  2.35212015    4.26534079   -5.78247260
 H                  2.72758481    3.98501128   -3.35946394
 H                  4.16288602    4.14170859    0.32920778
 H                  5.51741557    4.61858905    2.34149084
 H                  5.13914055    3.40292503    4.42503539
 H                  3.39738932    1.66477802    4.58665485
 H                  0.64342402   -1.20654917    5.77387660
 H                 -0.70537796   -2.90664570    6.97187565
 H                 -2.35212015   -4.26534079    5.78247260
 H                 -2.72758481   -3.98501128    3.35946394
 H                 -4.16288602   -4.14170859   -0.32920778
 H                 -5.51741557   -4.61858905   -2.34149084
 H                 -5.13914055   -3.40292503   -4.42503539
 H                 -3.39738932   -1.66477802   -4.58665485

notatoms=1-42


