#

a = 19.274, b = 4.8538, c = 14.553, beta = 120.48

0 1
Zn	0.0000	0.0000	0.0000
N	-0.0783	-0.5176	0.0716
N	0.0345	-0.2027	0.1345
N	0.1608	0.0268	0.2524
N	0.0992	0.2242	0.0750
C	-0.0085	-0.4097	0.146
C	0.0331	-0.4985	0.2564
C	0.0142	-0.6975	0.3092
C	0.0673	-0.7286	0.4178
C	0.1370	-0.5688	0.4721
C	0.1563	-0.3708	0.4191
C	0.1030	-0.3392	0.3101
C	0.1028	-0.154	0.2308
C	0.1590	0.198	0.1798
C	0.2228	0.3946	0.2018
C	0.2969	0.4514	0.2926
C	0.3445	0.6538	0.2846
C	0.3194	0.7969	0.1897
C	0.2455	0.7426	0.0989
C	0.1979	0.5384	0.1064
C	0.1198	0.4276	0.0286

