%chk=ZnPcXRD0.chk
# pbepbe/3-21g/auto

Title Card Required

0 1
Zn	0.00000000	0.00000000	0.00000000
N	-2.03769311	-2.51232688	0.89799765
N	-0.32790291	-0.98386526	1.68688107
N	1.23608573	0.13008184	3.16556715
N	1.35834368	1.08822196	0.94064000
C	-1.24157593	-1.98860186	1.83111254
C	-1.25473138	-2.41961930	3.21573462
C	-2.00877051	-3.38552550	3.87794518
C	-1.78698767	-3.53647868	5.23999190
C	-0.84442315	-2.76084144	5.92101526
C	-0.08119804	-1.79978904	5.25629633
C	-0.30388296	-1.64640896	3.88923286
C	0.27764123	-0.74748520	2.89466283
C	1.73731327	0.96105240	2.25502763
C	2.80459425	1.91530948	2.53094870
C	3.56252764	2.19100532	3.66975019
C	4.53902466	3.17341444	3.56941526
C	4.75578277	3.86799322	2.37919211
C	4.00170418	3.60443188	1.24039061
C	3.02889807	2.61328592	1.33445461
C	2.09790491	2.07548488	0.35869739
N	2.03769311	2.51232688	-0.89799765
N	0.32790291	0.98386526	-1.68688107
N	-1.23608573	-0.13008184	-3.16556715
N	-1.35834368	-1.08822196	-0.94064000
C	1.24157593	1.98860186	-1.83111254
C	1.25473138	2.41961930	-3.21573462
C	2.00877051	3.38552550	-3.87794518
C	1.78698767	3.53647868	-5.23999190
C	0.84442315	2.76084144	-5.92101526
C	0.08119804	1.79978904	-5.25629633
C	0.30388296	1.64640896	-3.88923286
C	-0.27764123	0.74748520	-2.89466283
C	-1.73731327	-0.96105240	-2.25502763
C	-2.80459425	-1.91530948	-2.53094870
C	-3.56252764	-2.19100532	-3.66975019
C	-4.53902466	-3.17341444	-3.56941526
C	-4.75578277	-3.86799322	-2.37919211
C	-4.00170418	-3.60443188	-1.24039061
C	-3.02889807	-2.61328592	-1.33445461
C	-2.09790491	-2.07548488	-0.35869739
Zn	9.63700000	2.42690000	0.00000000
N	11.67469311	-0.08542688	-0.89799765
N	9.96490291	1.44303474	-1.68688107
N	8.40091427	2.55698184	-3.16556715
N	8.27865632	3.51512196	-0.94064000
C	10.87857593	0.43829814	-1.83111254
C	10.89173138	0.00728070	-3.21573462
C	11.64577051	-0.95862550	-3.87794518
C	11.42398767	-1.10957868	-5.23999190
C	10.48142315	-0.33394144	-5.92101526
C	9.71819804	0.62711096	-5.25629633
C	9.94088296	0.78049104	-3.88923286
C	9.35935877	1.67941480	-2.89466283
C	7.89968673	3.38795240	-2.25502763
C	6.83240575	4.34220948	-2.53094870
C	6.07447236	4.61790532	-3.66975019
C	5.09797534	5.60031444	-3.56941526
C	4.88121723	6.29489322	-2.37919211
C	5.63529582	6.03133188	-1.24039061
C	6.60810193	5.04018592	-1.33445461
C	7.53909509	4.50238488	-0.35869739
N	7.59930689	4.93922688	0.89799765
N	9.30909709	3.41076526	1.68688107
N	10.87308573	2.29681816	3.16556715
N	10.99534368	1.33867804	0.94064000
C	8.39542407	4.41550186	1.83111254
C	8.38226862	4.84651930	3.21573462
C	7.62822949	5.81242550	3.87794518
C	7.85001233	5.96337868	5.23999190
C	8.79257685	5.18774144	5.92101526
C	9.55580196	4.22668904	5.25629633
C	9.33311704	4.07330896	3.88923286
C	9.91464123	3.17438520	2.89466283
C	11.37431327	1.46584760	2.25502763
C	12.44159425	0.51159052	2.53094870
C	13.19952764	0.23589468	3.66975019
C	14.17602466	-0.74651444	3.56941526
C	14.39278277	-1.44109322	2.37919211
C	13.63870418	-1.17753188	1.24039061
C	12.66589807	-0.18638592	1.33445461
C	11.73490491	0.35141512	0.35869739
 Tv                19.27400000    0.00000000    0.00000000
 Tv                 0.00000000    4.85380000    0.00000000
 Tv                -7.38182831    0.00000000   12.54186668

